tests/fuzzer/corpus_json/21_random_022.json
{
  "version": "1.0",
  "type": "input",
  "is_batch": false,
  "attributes": {},
  "data": {
    "node": [
      {
        "id": 0,
        "u_rated": 400.0
      },
      {
        "id": 1,
        "u_rated": 400.0
      },
      {
        "id": 2,
        "u_rated": 400.0
      },
      {
        "id": 3,
        "u_rated": 400.0
      }
    ],
    "source": [
      {
        "id": 4,
        "node": 0,
        "status": 1,
        "u_ref": 1.099726130734583,
        "u_ref_angle": 0.0,
        "sk": 23713785.524111655,
        "rx_ratio": 0.09212682285142654,
        "z01_ratio": 1.0
      },
      {
        "id": 5,
        "node": 3,
        "status": 1,
        "u_ref": 1.0,
        "u_ref_angle": 0.0,
        "sk": 651456098.4338636,
        "rx_ratio": 0.1,
        "z01_ratio": 1.0
      }
    ],
    "line": [
      {
        "id": 6,
        "from_node": 0,
        "to_node": 1,
        "from_status": 1,
        "to_status": 1,
        "r1": 1.7282241878128335,
        "x1": 4.447754698979015,
        "c1": 2.31741489986076e-07,
        "tan1": 0.0,
        "r0": 0.3,
        "x0": 0.3,
        "c0": 1e-09,
        "tan0": 0.0,
        "i_n": 959.8902112183324
      },
      {
        "id": 7,
        "from_node": 1,
        "to_node": 2,
        "from_status": 1,
        "to_status": 1,
        "r1": 1.597259192768684,
        "x1": 3.0057114429449827,
        "c1": 9.320876043438781e-07,
        "tan1": 0.0,
        "r0": 0.3,
        "x0": 0.3,
        "c0": 1e-09,
        "tan0": 0.0,
        "i_n": 688.4077647015237
      },
      {
        "id": 8,
        "from_node": 2,
        "to_node": 3,
        "from_status": 1,
        "to_status": 1,
        "r1": 4.619245843217186,
        "x1": 3.5405749039197416,
        "c1": 4.844033403057124e-08,
        "tan1": 0.0,
        "r0": 0.3,
        "x0": 0.3,
        "c0": 1e-09,
        "tan0": 0.0,
        "i_n": 882.5537116907936
      }
    ],
    "sym_load": [
      {
        "id": 9,
        "node": 1,
        "status": 1,
        "type": 1,
        "p_specified": -15696.277931134682,
        "q_specified": -6389.3775865721
      },
      {
        "id": 10,
        "node": 2,
        "status": 1,
        "type": 2,
        "p_specified": 87597.78101576085,
        "q_specified": 5479.042825556135
      }
    ]
  }
}